/*--------------------------------*- C++ -*----------------------------------*\
| =========                 |                                                 |
| \\      /  F ield         | foam-extend: Open Source CFD                    |
|  \\    /   O peration     | Version:     4.1                                |
|   \\  /    A nd           | Web:         http://www.foam-extend.org         |
|    \\/     M anipulation  |                                                 |
\*---------------------------------------------------------------------------*/
FoamFile
{
    version     2.0;
    format      ascii;
    class       polyBoundaryMesh;
    location    "constant/polyMesh";
    object      boundary;
}
// * * * * * * * * * * * * * * * * * * * * * * * * * * * * * * * * * * * * * //

6
(
    out
    {
        type            patch;
        nFaces          160;
        startFace       63640;
    }
    sym1
    {
        type            symmetryPlane;
        nFaces          200;
        startFace       63800;
    }
    sym2
    {
        type            symmetryPlane;
        nFaces          200;
        startFace       64000;
    }
    in
    {
        type            patch;
        nFaces          160;
        startFace       64200;
    }
    back
    {
        type            empty;
        nFaces          32000;
        startFace       64360;
    }
    front
    {
        type            empty;
        nFaces          32000;
        startFace       96360;
    }
)


// ************************************************************************* //
