/*--------------------------------*- C++ -*----------------------------------*\
| =========                 |                                                 |
| \\      /  F ield         | foam-extend: Open Source CFD                    |
|  \\    /   O peration     | Version:     4.1                                |
|   \\  /    A nd           | Web:         http://www.foam-extend.org         |
|    \\/     M anipulation  |                                                 |
\*---------------------------------------------------------------------------*/
FoamFile
{
    version     2.0;
    format      ascii;
    class       dictionary;
    object      blockMeshDict;
}
// * * * * * * * * * * * * * * * * * * * * * * * * * * * * * * * * * * * * * //

convertToMeters 6.28318530718; //2*pi

vertices
(
    (0 0 0)
    (1 0 0)
    (1 1 0)
    (0 1 0)
    (0 0 1)
    (1 0 1)
    (1 1 1)
    (0 1 1)
);

blocks
(
    hex (0 1 2 3 4 5 6 7) (64 64 64) simpleGrading (1 1 1)
);

edges
(
);

boundary
(
    top
    {
        type symmetryPlane;
        faces
        (
            (3 7 6 2)
        );
    }
    left
    {
        type symmetryPlane;
        faces
        (
            (0 4 7 3)
        );
    }
    right
    {
        type symmetryPlane;
        faces
        (
            (2 6 5 1)
        );
    }
    bottom
    {
        type symmetryPlane;
        faces
        (
            (1 5 4 0)
        );
    }
    front
    {
        type symmetryPlane;
        faces
        (
            (0 3 2 1)
        );
    }
    back
    {
        type symmetryPlane;
        faces
        (
            (4 5 6 7)
        );
    }
);

mergePatchPairs
(
);


// ************************************************************************* //
