/*--------------------------------*- C++ -*----------------------------------*\
| =========                 |                                                 |
| \\      /  F ield         | foam-extend: Open Source CFD                    |
|  \\    /   O peration     | Version:     4.1                                |
|   \\  /    A nd           | Web:         http://www.foam-extend.org         |
|    \\/     M anipulation  |                                                 |
\*---------------------------------------------------------------------------*/
FoamFile
{
    version     2.0;
    format      ascii;
    class       polyBoundaryMesh;
    location    "constant/polyMesh";
    object      boundary;
}
// * * * * * * * * * * * * * * * * * * * * * * * * * * * * * * * * * * * * * //

6
(
    top
    {
        type            symmetryPlane;
        nFaces          10000;
        startFace       2970000;
    }
    left
    {
        type            symmetryPlane;
        nFaces          10000;
        startFace       2980000;
    }
    right
    {
        type            symmetryPlane;
        nFaces          10000;
        startFace       2990000;
    }
    bottom
    {
        type            symmetryPlane;
        nFaces          10000;
        startFace       3000000;
    }
    front
    {
        type            symmetryPlane;
        nFaces          10000;
        startFace       3010000;
    }
    back
    {
        type            symmetryPlane;
        nFaces          10000;
        startFace       3020000;
    }
)


// ************************************************************************* //
