/*--------------------------------*- C++ -*----------------------------------*\
| =========                 |                                                 |
| \\      /  F ield         | foam-extend: Open Source CFD                    |
|  \\    /   O peration     | Version:     4.1                                |
|   \\  /    A nd           | Web:         http://www.foam-extend.org         |
|    \\/     M anipulation  |                                                 |
\*---------------------------------------------------------------------------*/
FoamFile
{
    version     2.0;
    format      ascii;
    class       polyBoundaryMesh;
    location    "constant/polyMesh";
    object      boundary;
}
// * * * * * * * * * * * * * * * * * * * * * * * * * * * * * * * * * * * * * //

6
(
    top
    {
        type            symmetryPlane;
        nFaces          4096;
        startFace       774144;
    }
    left
    {
        type            symmetryPlane;
        nFaces          4096;
        startFace       778240;
    }
    right
    {
        type            symmetryPlane;
        nFaces          4096;
        startFace       782336;
    }
    bottom
    {
        type            symmetryPlane;
        nFaces          4096;
        startFace       786432;
    }
    front
    {
        type            symmetryPlane;
        nFaces          4096;
        startFace       790528;
    }
    back
    {
        type            symmetryPlane;
        nFaces          4096;
        startFace       794624;
    }
)


// ************************************************************************* //
