/*--------------------------------*- C++ -*----------------------------------*\
| =========                 |                                                 |
| \\      /  F ield         | foam-extend: Open Source CFD                    |
|  \\    /   O peration     | Version:     4.1                                |
|   \\  /    A nd           | Web:         http://www.foam-extend.org         |
|    \\/     M anipulation  |                                                 |
\*---------------------------------------------------------------------------*/
FoamFile
{
    version     2.0;
    format      ascii;
    class       polyBoundaryMesh;
    location    "constant/polyMesh";
    object      boundary;
}
// * * * * * * * * * * * * * * * * * * * * * * * * * * * * * * * * * * * * * //

6
(
    top
    {
        type            wall;
        nFaces          512;
        startFace       261376;
    }
    left
    {
        type            wall;
        nFaces          256;
        startFace       261888;
    }
    right
    {
        type            wall;
        nFaces          256;
        startFace       262144;
    }
    bottom
    {
        type            wall;
        nFaces          512;
        startFace       262400;
    }
    front
    {
        type            empty;
        nFaces          131072;
        startFace       262912;
    }
    back
    {
        type            empty;
        nFaces          131072;
        startFace       393984;
    }
)


// ************************************************************************* //
